Circuit: * C:\Users\Yuki Sakamoto\A\A2 13.asc

Direct Newton iteration for .op point succeeded.

Date: Wed Jun 10 22:39:14 2020
Total elapsed time: 0.076 seconds.

tnom = 27
temp = 27
method = modified trap
totiter = 2095
traniter = 2082
tranpoints = 1042
accept = 1042
rejected = 0
matrix size = 11
fillins = 2
solver = Normal
Matrix Compiler1: 602 bytes object code size  0.2/0.1/[0.1]
Matrix Compiler2: off  [0.1]/0.1/0.1

