Circuit: * C:\Users\Yuki Sakamoto\A\A2 11.asc

Direct Newton iteration for .op point succeeded.

Date: Thu Jun 04 21:56:47 2020
Total elapsed time: 0.060 seconds.

tnom = 27
temp = 27
method = trap
totiter = 27
traniter = 0
tranpoints = 0
accept = 0
rejected = 0
matrix size = 10
fillins = 0
solver = Normal
Matrix Compiler1:      23 opcodes
Matrix Compiler2: 886 bytes object code size
