Circuit: * C:\Users\Yuki Sakamoto\A\A2 31step.asc

Direct Newton iteration for .op point succeeded.

Date: Mon Jun 08 15:02:12 2020
Total elapsed time: 0.070 seconds.

tnom = 27
temp = 27
method = modified trap
totiter = 2392
traniter = 2358
tranpoints = 1180
accept = 1152
rejected = 28
matrix size = 12
fillins = 2
solver = Normal
Matrix Compiler1: 742 bytes object code size  0.2/0.1/[0.1]
Matrix Compiler2: off  [0.1]/0.2/0.1

